*INCLUDE, INP=GEOMODEL2.INP
*SOLID SECTION, ELSET=ALLELE, MATERIAL=MATERIAL-1
 1.0
*Material, name=MATERIAL-1
*Drucker Prager
 43.3,1.,43.3
*Drucker Prager Hardening
 24.35, 0.
 24.3502, 0.01
 24.3504, 0.02
*Elastic
30000., 0.25
*EQUATION
 2,
 TOP, 3, 1.0, 9000000, 3, -1.0
*BOUNDARY
 BOTTOM, 3, 3
 TOP-CENTER, 1, 2
 BOTTOM-CENTER, 1, 2
*STEP, INC=200000,NLGEOM=NO
*STATIC
 1E-1, 1.0, 1E-20, 1.0
*BOUNDARY
 9000000, 3, 3, -0.0008116666666666667
*END STEP