*INCLUDE, INP=GEOMODEL2.INP
*SOLID SECTION, ELSET=ALLELE, MATERIAL=MATERIAL-1
 1.0
*Material, name=MATERIAL-1
*Density
 2.0E-9,
*Drucker Prager
 43.3,1.,0.0
*Drucker Prager Hardening
 24.35, 0.
 20.0, 0.005
 16.0, 0.02
 12.0, 0.05
*Elastic
30000., 0.25
*EQUATION
 2,
 TOP, 3, 1.0, 9000000, 3, -1.0
*BOUNDARY
 BOTTOM, 3, 3
 TOP-CENTER, 1, 2
 BOTTOM-CENTER, 1, 2
*AMPLITUDE, NAME=SMOOTH, DEFINITION=SMOOTH STEP
 0., 0., 1., 1.
*STEP, NLGEOM=YES
*DYNAMIC, EXPLICIT
 , 1.0
*BULK VISCOSITY
 0.06, 1.2
*FIXED MASS SCALING, TYPE=BELOW MIN, DT=1E-6
*BOUNDARY, AMPLITUDE=SMOOTH
 9000000, 3, 3, -0.01
*OUTPUT, FIELD, VARIABLE=PRESELECT, TIME INTERVAL=0.01
*OUTPUT, HISTORY, VARIABLE=PRESELECT, TIME INTERVAL=0.01
*END STEP
