*INCLUDE, INP=Hole_M2.INP
*SOLID SECTION, ELSET=ALLELE, MATERIAL=MATERIAL-1
 1.0
*Material, name=MATERIAL-1
*Drucker Prager
 43.3,1.,0.0
*Drucker Prager Hardening, TYPE=COMPRESSION
 24.35, 0.
*Elastic
 30000., 0.25
*EQUATION
  2,
  TOP, 2, 1.0, 9000000, 2, -1.0
*BOUNDARY
 BOTTOM, 2, 2
 LEFT, 1, 1
 FRONT, 3, 3
*STEP, INC=2000, UNSYMM=YES
*STATIC
 0.01, 1.0, 1E-19, 0.01
*BOUNDARY
 9000000, 2, 2, 0.004
*END STEP